Circuit: * C:\Users\bakad\source\repos\fanControl\PCB\Draft2.asc

Direct Newton iteration for .op point succeeded.

Date: Fri Mar 25 13:23:13 2022
Total elapsed time: 0.108 seconds.

tnom = 27
temp = 27
method = modified trap
totiter = 2644
traniter = 2628
tranpoints = 1183
accept = 1145
rejected = 38
matrix size = 20
fillins = 2
solver = Normal
Matrix Compiler1: 962 bytes object code size  0.2/0.1/[0.1]
Matrix Compiler2: off  [0.1]/0.2/0.1

