Circuit: * C:\Users\bakad\source\repos\fanControl\PCB\Draft2.asc

Questionable use of curly braces in "b§e_abmgate yint 0 v={if(v(a)>{{vthresh}}|v(b)>{{vthresh}},{{vdd}},{{vss}})}"
    Error: undefined symbol in: "if([v](a)>((vthresh))|v(b)>((vthresh)),((vdd)),((vss)))"
Questionable use of curly braces in "b§e_abmgate yint 0 v={if(v(a)>{{vthresh}}&v(b)>{{vthresh}},{{vss}},{{vdd}})}"
    Error: undefined symbol in: "if([v](a)>((vthresh))&v(b)>((vthresh)),((vss)),((vdd)))"
Questionable use of curly braces in "b§e_abmgate yint 0 v={if(v(a)>{{vthresh}}&v(b)>{{vthresh}},{{vdd}},{{vss}})}"
    Error: undefined symbol in: "if([v](a)>((vthresh))&v(b)>((vthresh)),((vdd)),((vss)))"
Questionable use of curly braces in "b§e_abmgate yint 0 v={if(v(a)>{{vthresh}}|v(b)>{{vthresh}}|v(c)>{{vthresh}},{{vss}},{{vdd}})}"
    Error: undefined symbol in: "if([v](a)>((vthresh))|v(b)>((vthresh))|v(c)>((vthresh)),((vss)),((vdd)))"
Questionable use of curly braces in "b§e_abmgate yint 0 v={if(v(a)>{{vthresh}},{{vdd}},{{vss}})}"
    Error: undefined symbol in: "if([v](a)>((vthresh)),((vdd)),((vss)))"
WARNING: Node N005 is floating.

WARNING: Less than two connections to node NC_01.  This node is used by R:U1:NC_0.
WARNING: Less than two connections to node NC_02.  This node is used by R:U1:NC_1.
WARNING: Less than two connections to node NC_03.  This node is used by R:U1:NC_2.
WARNING: Less than two connections to node NC_04.  This node is used by R:U1:NC_3.
WARNING: Less than two connections to node NC_05.  This node is used by R:U1:NC_4.
WARNING: Less than two connections to node NC_06.  This node is used by R:U1:NC_5.
WARNING: Less than two connections to node NC_07.  This node is used by R:U1:NC_6.
WARNING: Less than two connections to node NC_08.  This node is used by R:U1:NC_7.
WARNING: Less than two connections to node NC_09.  This node is used by R:U1:NC_8.
Direct Newton iteration for .op point succeeded.
Ignoring empty pin current: Ix(u1:fb)
Ignoring empty pin current: Ix(u1:fb)

Date: Wed Nov 10 21:14:31 2021
Total elapsed time: 0.210 seconds.

tnom = 27
temp = 27
method = modified trap
totiter = 3085
traniter = 3057
tranpoints = 1510
accept = 1406
rejected = 104
matrix size = 136
fillins = 81
solver = Normal
Thread vector: 7.3/5.7[2] 4.0/2.8[2] 5.6/2.6[2] 0.5/1.8[1]  2592/500
Matrix Compiler1: 7.47 KB object code size  2.2/1.2/[0.6]
Matrix Compiler2: 9.73 KB object code size  0.8/1.9/[0.4]

