Circuit: * C:\Users\bakad\source\repos\fanControl\PCB\Draft3.asc

WARNING: Less than two connections to node STEPPING.  This node is used by V3.
.step stepping=-1
.step stepping=0
.step stepping=1
.step stepping=2
.step stepping=3
.step stepping=4
.step stepping=5
.step stepping=6
.step stepping=7
.step stepping=8
.step stepping=9
.step stepping=10
.step stepping=11
.step stepping=12
.step stepping=13
.step stepping=14
.step stepping=15

Date: Fri Apr 22 14:26:38 2022
Total elapsed time: 1.248 seconds.

tnom = 27
temp = 27
method = trap
totiter = 65
traniter = 0
tranpoints = 0
accept = 0
rejected = 0
matrix size = 13
fillins = 0
solver = Normal
Matrix Compiler1:      34 opcodes
Matrix Compiler2: 891 bytes object code size
