Circuit: * C:\Users\bakad\source\repos\fanControl\PCB\Draft1.asc

WARNING: Node N001 is floating.

V2: Missing value, assumed 0V @ DC
Direct Newton iteration for .op point succeeded.

Date: Sun Nov 07 10:31:49 2021
Total elapsed time: 0.080 seconds.

tnom = 27
temp = 27
method = modified trap
totiter = 2092
traniter = 2082
tranpoints = 1042
accept = 1042
rejected = 0
matrix size = 15
fillins = 4
solver = Normal
Matrix Compiler1: 1.20 KB object code size  0.3/0.1/[0.1]
Matrix Compiler2: off  [0.1]/0.1/0.1

