Stray ".ends" card: .ends vs-10bq015-m3
Circuit: * C:\Users\bakad\source\repos\fanControl\PCB\LDO_rev_prot.asc

WARNING: Node NC_02 is floating.
WARNING: Node NC_03 is floating.

WARNING: Less than two connections to node NC_01.  This node is used by V2.
WARNING: Less than two connections to node NC_02.  This node is used by C3.
WARNING: Less than two connections to node NC_03.  This node is used by C3.
Direct Newton iteration failed to find .op point.  (Use ".option noopiter" to skip.)
Starting Gmin stepping
Gmin = 10
Gmin = 1.07374
Gmin = 0.115292
Gmin = 0.0123794
Gmin = 0.00132923
Gmin = 0.000142725
Gmin = 1.5325e-005
Gmin = 1.6455e-006
Gmin = 1.76685e-007
Gmin = 1.89714e-008
Gmin = 2.03704e-009
Gmin = 2.18725e-010
Gmin = 2.34854e-011
Gmin = 2.52173e-012
Gmin = 2.70769e-013
Gmin = 0
Gmin stepping succeeded in finding the operating point.


Date: Sun Mar 20 22:07:32 2022
Total elapsed time: 0.085 seconds.

tnom = 27
temp = 27
method = modified trap
totiter = 3433
traniter = 2976
tranpoints = 1489
accept = 1221
rejected = 268
matrix size = 14
fillins = 1
solver = Normal
Matrix Compiler1: 1.08 KB object code size  0.2/0.1/[0.1]
Matrix Compiler2: 1.11 KB object code size  0.1/0.2/[0.1]

