Circuit: * C:\Users\bakad\source\repos\fanControl\PCB\LM2575.asc

Questionable use of curly braces in "b§e_abmgate yint 0 v={if(v(a)>{{vthresh}}|v(b)>{{vthresh}},{{vdd}},{{vss}})}"
    Error: undefined symbol in: "if([v](a)>((vthresh))|v(b)>((vthresh)),((vdd)),((vss)))"
Questionable use of curly braces in "b§e_abmgate yint 0 v={if(v(a)>{{vthresh}}&v(b)>{{vthresh}},{{vss}},{{vdd}})}"
    Error: undefined symbol in: "if([v](a)>((vthresh))&v(b)>((vthresh)),((vss)),((vdd)))"
Questionable use of curly braces in "b§e_abmgate yint 0 v={if(v(a)>{{vthresh}}&v(b)>{{vthresh}},{{vdd}},{{vss}})}"
    Error: undefined symbol in: "if([v](a)>((vthresh))&v(b)>((vthresh)),((vdd)),((vss)))"
Questionable use of curly braces in "b§e_abmgate yint 0 v={if(v(a)>{{vthresh}}|v(b)>{{vthresh}}|v(c)>{{vthresh}},{{vss}},{{vdd}})}"
    Error: undefined symbol in: "if([v](a)>((vthresh))|v(b)>((vthresh))|v(c)>((vthresh)),((vss)),((vdd)))"
Questionable use of curly braces in "b§e_abmgate yint 0 v={if(v(a)>{{vthresh}},{{vdd}},{{vss}})}"
    Error: undefined symbol in: "if([v](a)>((vthresh)),((vdd)),((vss)))"
WARNING: Less than two connections to node NC_01.  This node is used by R:U1:NC_0.
WARNING: Less than two connections to node NC_02.  This node is used by R:U1:NC_1.
WARNING: Less than two connections to node NC_03.  This node is used by R:U1:NC_2.
WARNING: Less than two connections to node NC_04.  This node is used by R:U1:NC_3.
WARNING: Less than two connections to node NC_05.  This node is used by R:U1:NC_4.
WARNING: Less than two connections to node NC_06.  This node is used by R:U1:NC_5.
WARNING: Less than two connections to node NC_07.  This node is used by R:U1:NC_6.
WARNING: Less than two connections to node NC_08.  This node is used by R:U1:NC_7.
WARNING: Less than two connections to node NC_09.  This node is used by R:U1:NC_8.
Direct Newton iteration for .op point succeeded.
Ignoring empty pin current: Ix(u1:fb)
Ignoring empty pin current: Ix(u1:fb)
Heightened Def Con from 0.0106028 to 0.0106028
Heightened Def Con from 0.0108947 to 0.0108947
Heightened Def Con from 0.0115168 to 0.0115168
Heightened Def Con from 0.0117805 to 0.0117805
Heightened Def Con from 0.011923 to 0.011923
Heightened Def Con from 0.0120751 to 0.0120751
Heightened Def Con from 0.0121316 to 0.0121316
Heightened Def Con from 0.0121682 to 0.0121682
Heightened Def Con from 0.0123341 to 0.0123341
Heightened Def Con from 0.012372 to 0.012372
Heightened Def Con from 0.0127505 to 0.0127505
Heightened Def Con from 0.0130646 to 0.0130646
Heightened Def Con from 0.013562 to 0.013562
Heightened Def Con from 0.0137944 to 0.0137944
Heightened Def Con from 0.0138132 to 0.0138132
Heightened Def Con from 0.0139815 to 0.0139815
Heightened Def Con from 0.0141711 to 0.0141711
Heightened Def Con from 0.014354 to 0.014354
Heightened Def Con from 0.0143915 to 0.0143915
Heightened Def Con from 0.0145553 to 0.0145553
Heightened Def Con from 0.0146935 to 0.0146935
Heightened Def Con from 0.0148076 to 0.0148076
Heightened Def Con from 0.014914 to 0.014914

Date: Fri May 06 10:02:06 2022
Total elapsed time: 22.125 seconds.

tnom = 27
temp = 27
method = modified trap
totiter = 1548125
traniter = 1548106
tranpoints = 508344
accept = 393978
rejected = 114389
matrix size = 131
fillins = 73
solver = Normal
Thread vector: 9.4/5.5[2] 1.7/2.1[1] 2.5/2.2[2] 0.7/1.2[1]  2592/500
Matrix Compiler1: 6.91 KB object code size  1.4/0.8/[0.4]
Matrix Compiler2: 9.24 KB object code size  0.7/1.2/[0.6]

