Circuit: * C:\Users\bakad\source\repos\fanControl\PCB\LM2575.asc

Questionable use of curly braces in "b§e_abmgate yint 0 v={if(v(a)>{{vthresh}}|v(b)>{{vthresh}},{{vdd}},{{vss}})}"
    Error: undefined symbol in: "if([v](a)>((vthresh))|v(b)>((vthresh)),((vdd)),((vss)))"
Questionable use of curly braces in "b§e_abmgate yint 0 v={if(v(a)>{{vthresh}}&v(b)>{{vthresh}},{{vss}},{{vdd}})}"
    Error: undefined symbol in: "if([v](a)>((vthresh))&v(b)>((vthresh)),((vss)),((vdd)))"
Questionable use of curly braces in "b§e_abmgate yint 0 v={if(v(a)>{{vthresh}}&v(b)>{{vthresh}},{{vdd}},{{vss}})}"
    Error: undefined symbol in: "if([v](a)>((vthresh))&v(b)>((vthresh)),((vdd)),((vss)))"
Questionable use of curly braces in "b§e_abmgate yint 0 v={if(v(a)>{{vthresh}}|v(b)>{{vthresh}}|v(c)>{{vthresh}},{{vss}},{{vdd}})}"
    Error: undefined symbol in: "if([v](a)>((vthresh))|v(b)>((vthresh))|v(c)>((vthresh)),((vss)),((vdd)))"
Questionable use of curly braces in "b§e_abmgate yint 0 v={if(v(a)>{{vthresh}},{{vdd}},{{vss}})}"
    Error: undefined symbol in: "if([v](a)>((vthresh)),((vdd)),((vss)))"
WARNING: Less than two connections to node NC_01.  This node is used by R:U1:NC_0.
WARNING: Less than two connections to node NC_02.  This node is used by R:U1:NC_1.
WARNING: Less than two connections to node NC_03.  This node is used by R:U1:NC_2.
WARNING: Less than two connections to node NC_04.  This node is used by R:U1:NC_3.
WARNING: Less than two connections to node NC_05.  This node is used by R:U1:NC_4.
WARNING: Less than two connections to node NC_06.  This node is used by R:U1:NC_5.
WARNING: Less than two connections to node NC_07.  This node is used by R:U1:NC_6.
WARNING: Less than two connections to node NC_08.  This node is used by R:U1:NC_7.
WARNING: Less than two connections to node NC_09.  This node is used by R:U1:NC_8.
Direct Newton iteration for .op point succeeded.
Ignoring empty pin current: Ix(u1:fb)
Ignoring empty pin current: Ix(u1:fb)
Heightened Def Con from 0.0103972 to 0.0103972
Heightened Def Con from 0.0104164 to 0.0104164
Heightened Def Con from 0.0106198 to 0.0106198
Heightened Def Con from 0.0115728 