Circuit: * C:\Users\bakad\source\repos\fanControl\PCB\LM2575.asc

Questionable use of curly braces in "b§e_abmgate yint 0 v={if(v(a)>{{vthresh}}|v(b)>{{vthresh}},{{vdd}},{{vss}})}"
    Error: undefined symbol in: "if([v](a)>((vthresh))|v(b)>((vthresh)),((vdd)),((vss)))"
Questionable use of curly braces in "b§e_abmgate yint 0 v={if(v(a)>{{vthresh}}&v(b)>{{vthresh}},{{vss}},{{vdd}})}"
    Error: undefined symbol in: "if([v](a)>((vthresh))&v(b)>((vthresh)),((vss)),((vdd)))"
Questionable use of curly braces in "b§e_abmgate yint 0 v={if(v(a)>{{vthresh}}&v(b)>{{vthresh}},{{vdd}},{{vss}})}"
    Error: undefined symbol in: "if([v](a)>((vthresh))&v(b)>((vthresh)),((vdd)),((vss)))"
Questionable use of curly braces in "b§e_abmgate yint 0 v={if(v(a)>{{vthresh}}|v(b)>{{vthresh}}|v(c)>{{vthresh}},{{vss}},{{vdd}})}"
    Error: undefined symbol in: "if([v](a)>((vthresh))|v(b)>((vthresh))|v(c)>((vthresh)),((vss)),((vdd)))"
Questionable use of curly braces in "b§e_abmgate yint 0 v={if(v(a)>{{vthresh}},{{vdd}},{{vss}})}"
    Error: undefined symbol in: "if([v](a)>((vthresh)),((vdd)),((vss)))"
WARNING: Less than two connections to node NC_01.  This node is used by R:U1:NC_0.
WARNING: Less than two connections to node NC_02.  This node is used by R:U1:NC_1.
WARNING: Less than two connections to node NC_03.  This node is used by R:U1:NC_2.
WARNING: Less than two connections to node NC_04.  This node is used by R:U1:NC_3.
WARNING: Less than two connections to node NC_05.  This node is used by R:U1:NC_4.
WARNING: Less than two connections to node NC_06.  This node is used by R:U1:NC_5.
WARNING: Less than two connections to node NC_07.  This node is used by R:U1:NC_6.
WARNING: Less than two connections to node NC_08.  This node is used by R:U1:NC_7.
WARNING: Less than two connections to node NC_09.  This node is used by R:U1:NC_8.
Direct Newton iteration for .op point succeeded.
Ignoring empty pin current: Ix(u1:fb)
Ignoring empty pin current: Ix(u1:fb)
Heightened Def Con from 0.01087 to 0.01087

Date: Thu Jan 27 18:14:04 2022
Total elapsed time: 2.203 seconds.

tnom = 27
temp = 27
method = modified trap
totiter = 115311
traniter = 115292
tranpoints = 44094
accept = 36839
rejected = 7256
matrix size = 131
fillins = 73
solver = Normal
Thread vector: 6.6/6.9[2] 2.7/2.1[2] 2.5/2.5[1] 0.3/1.5[1]  2592/500
Matrix Compiler1: 7.01 KB object code size  1.4/0.9/[0.5]
Matrix Compiler2: 9.21 KB object code size  0.6/1.3/[0.4]

