Circuit: * C:\Users\bakad\source\repos\fanControl\PCB\LM2575.asc

Questionable use of curly braces in "b§e_abmgate yint 0 v={if(v(a)>{{vthresh}}|v(b)>{{vthresh}},{{vdd}},{{vss}})}"
    Error: undefined symbol in: "if([v](a)>((vthresh))|v(b)>((vthresh)),((vdd)),((vss)))"
Questionable use of curly braces in "b§e_abmgate yint 0 v={if(v(a)>{{vthresh}}&v(b)>{{vthresh}},{{vss}},{{vdd}})}"
    Error: undefined symbol in: "if([v](a)>((vthresh))&v(b)>((vthresh)),((vss)),((vdd)))"
Questionable use of curly braces in "b§e_abmgate yint 0 v={if(v(a)>{{vthresh}}&v(b)>{{vthresh}},{{vdd}},{{vss}})}"
    Error: undefined symbol in: "if([v](a)>((vthresh))&v(b)>((vthresh)),((vdd)),((vss)))"
Questionable use of curly braces in "b§e_abmgate yint 0 v={if(v(a)>{{vthresh}}|v(b)>{{vthresh}}|v(c)>{{vthresh}},{{vss}},{{vdd}})}"
    Error: undefined symbol in: "if([v](a)>((vthresh))|v(b)>((vthresh))|v(c)>((vthresh)),((vss)),((vdd)))"
Questionable use of curly braces in "b§e_abmgate yint 0 v={if(v(a)>{{vthresh}},{{vdd}},{{vss}})}"
    Error: undefined symbol in: "if([v](a)>((vthresh)),((vdd)),((vss)))"
WARNING: Less than two connections to node NC_01.  This node is used by R:U1:NC_0.
WARNING: Less than two connections to node NC_02.  This node is used by R:U1:NC_1.
WARNING: Less than two connections to node NC_03.  This node is used by R:U1:NC_2.
WARNING: Less than two connections to node NC_04.  This node is used by R:U1:NC_3.
WARNING: Less than two connections to node NC_05.  This node is used by R:U1:NC_4.
WARNING: Less than two connections to node NC_06.  This node is used by R:U1:NC_5.
WARNING: Less than two connections to node NC_07.  This node is used by R:U1:NC_6.
WARNING: Less than two connections to node NC_08.  This node is used by R:U1:NC_7.
WARNING: Less than two connections to node NC_09.  This node is used by R:U1:NC_8.
Direct Newton iteration for .op point succeeded.
Ignoring empty pin current: Ix(u1:fb)
Ignoring empty pin current: Ix(u1:fb)
Heightened Def Con from 0.0100382 to 0.0100382
Heightened Def Con from 0.0101676 to 0.0101676
Heightened Def Con from 0.0102251 to 0.0102251
Heightened Def Con from 0.0108266 to 0.0108266
Heightened Def Con from 0.0109116 to 0.0109116
Heightened Def Con from 0.0109879 to 0.0109879
Heightened Def Con from 0.0118121 to 0.0118121
Heightened Def Con from 0.0126435 to 0.0126435
Heightened Def Con from 0.0134708 to 0.0134708
Heightened Def Con from 0.0134897 to 0.0134897
Heightened Def Con from 0.0137261 to 0.0137261
Heightened Def Con from 0.0139829 to 0.0139829
Heightened Def Con from 0.0141636 to 0.0141636
Heightened Def Con from 0.014448 to 0.014448
Heightened Def Con from 0.0145224 to 0.0145224
Heightened Def Con from 0.0146077 to 0.0146077
Heightened Def Con from 0.0147593 to 0.0147593
Heightened Def Con from 0.0148246 to 0.0148246

Date: Thu Mar 24 08:42:26 2022
Total elapsed time: 28.422 seconds.

tnom = 27
temp = 27
method = modified trap
totiter = 1897776
traniter = 1897757
tranpoints = 621779
accept = 483301
rejected = 138496
matrix size = 131
fillins = 73
solver = Normal
Thread vector: 8.0/6.1[2] 1.6/2.1[1] 2.5/2.0[2] 0.4/1.3[1]  2592/500
Matrix Compiler1: 6.91 KB object code size  1.4/0.8/[0.5]
Matrix Compiler2: 9.24 KB object code size  0.6/1.9/[0.4]

