Circuit: * C:\Users\bakad\source\repos\fanControl\PCB\low_power_cutoff.asc

.OP point found by inspection.

Date: Fri Nov 05 08:36:11 2021
Total elapsed time: 0.086 seconds.

tnom = 27
temp = 27
method = trap
totiter = 854
traniter = 0
tranpoints = 0
accept = 0
rejected = 0
matrix size = 8
fillins = 6
solver = Normal
Matrix Compiler1: 834 bytes object code size  0.1/0.1/[0.1]
Matrix Compiler2: 758 bytes object code size  0.1/0.1/[0.1]

