Circuit: * C:\Users\bakad\source\repos\fanControl\PCB\microphone_circuit.asc

Direct Newton iteration for .op point succeeded.

Date: Sat Nov 13 21:59:57 2021
Total elapsed time: 0.100 seconds.

tnom = 27
temp = 27
method = modified trap
totiter = 2117
traniter = 2082
tranpoints = 1042
accept = 1042
rejected = 0
matrix size = 19
fillins = 18
solver = Normal
Matrix Compiler1: 2.35 KB object code size  0.4/0.2/[0.2]
Matrix Compiler2: off  [0.1]/0.3/0.2

