Circuit: * C:\Users\bakad\source\repos\fanControl\PCB\POW_en.asc

WARNING: Less than two connections to node Q1:33.  This node is used by Q:Q1:2.
WARNING: Less than two connections to node STEPPING.  This node is used by V3.
Instance "m:m1:1": Width narrower than recommended for a level 3 MOSFET.
.OP point found by inspection.
.step stepping=-1
.step stepping=0
.step stepping=1
.step stepping=2
.step stepping=3
.step stepping=4
.step stepping=5
.step stepping=6
.step stepping=7
.step stepping=8
.step stepping=9
.step stepping=10
.step stepping=11
.step stepping=12
.step stepping=13
.step stepping=14
.step stepping=15
.step stepping=16
.step stepping=17
.step stepping=18
.step stepping=19
.step stepping=20
.step stepping=21
.step stepping=22
.step stepping=23
.step stepping=24
.step stepping=25
.step stepping=26
.step stepping=27
.step stepping=28
.step stepping=29
.step stepping=30
.step stepping=31

Date: Fri Apr 15 11:40:42 2022
Total elapsed time: 2.009 seconds.

tnom = 27
temp = 27
method = modified trap
totiter = 3140
traniter = 3140
tranpoints = 1459
accept = 1341
rejected = 118
matrix size = 29
fillins = 12
solver = Normal
Matrix Compiler1: 2.54 KB object code size  0.4/0.3/[0.1]
Matrix Compiler2: 2.57 KB object code size  0.2/0.4/[0.2]

