Circuit: * C:\Users\bakad\source\repos\fanControl\PCB\USB_sense_old_2_WCA.asc

WARNING: Less than two connections to node STEPPING.  This node is used by V3.
WARNING: Less than two connections to node THERSHOLD.  This node is used by V4.
.OP point found by inspection.
.step stepping=-1
.step stepping=0
.step stepping=1
.step stepping=2
.step stepping=3
.step stepping=4
.step stepping=5
.step stepping=6
.step stepping=7
.step stepping=8
.step stepping=9
.step stepping=10
.step stepping=11
.step stepping=12
.step stepping=13
.step stepping=14
.step stepping=15

Date: Wed Apr 13 12:41:32 2022
Total elapsed time: 1.234 seconds.

tnom = 27
temp = 27
method = modified trap
totiter = 2206
traniter = 2206
tranpoints = 1090
accept = 1084
rejected = 6
matrix size = 12
fillins = 0
solver = Normal
Matrix Compiler1:      23 opcodes  0.1/[0.1]/0.1
Matrix Compiler2: 716 bytes object code size  0.1/0.1/[0.0]

