Stray ".ends" card: .ends
Questionable use of curly braces in "b§v2 psu_en 0 v={if(v(vin)>7,5,0)}"
    Error: undefined symbol in: "if([v](vin)>7,5,0)"
Circuit: * C:\Users\bakad\source\repos\fanControl\PCB\Vin_mon.asc

.OP point found by inspection.

Date: Fri Apr 01 16:02:56 2022
Total elapsed time: 0.405 seconds.

tnom = 27
temp = 27
method = trap
totiter = 877
traniter = 0
tranpoints = 0
accept = 0
rejected = 0
matrix size = 18
fillins = 2
solver = Normal
Matrix Compiler1: 1.11 KB object code size  0.6/0.4/[0.3]
Matrix Compiler2: 1.48 KB object code size  0.3/0.5/[0.3]

