Circuit: * C:\Users\bakad\source\repos\fanControl\PCB\Vin_mon.asc


Date: Fri Mar 25 19:46:28 2022
Total elapsed time: 0.092 seconds.

tnom = 27
temp = 27
method = trap
totiter = 836
traniter = 0
tranpoints = 0
accept = 0
rejected = 0
matrix size = 23
fillins = 2
solver = Normal
Matrix Compiler1: 1.24 KB object code size  0.3/0.2/[0.1]
Matrix Compiler2: 1.74 KB object code size  0.1/0.7/[0.1]

