Stray ".ends" card: .ends
Questionable use of curly braces in "b§v2 psu_en 0 v{if(v(s)>7,5,0)}"
    Error: undefined symbol in: "if([v](s)>7,5,0)"
Circuit: * C:\Users\bakad\source\repos\fanControl\PCB\Vin_mon_Sasi.asc

.OP point found by inspection.

Date: Sat Apr 02 17:38:42 2022
Total elapsed time: 0.117 seconds.

tnom = 27
temp = 27
method = trap
totiter = 851
traniter = 0
tranpoints = 0
accept = 0
rejected = 0
matrix size = 17
fillins = 2
solver = Normal
Matrix Compiler1: 1.04 KB object code size  0.2/0.1/[0.1]
Matrix Compiler2: 1.37 KB object code size  0.1/0.2/[0.1]

